---- qbsp / ericw-tools 2.0.0-alpha8-64-gbbe39c7c ----

--- Options Summary ---
    "nocolor" was set to "1" (from command line)

Input file: C:\Users\mpatn\Documents\GitHub\Quake-CarnivalChaos\quake-leveldesign-starterkit-20241231-windows\working\quake\CarnivalChaos-compile.map
Output file: C:\Users\mpatn\Documents\GitHub\Quake-CarnivalChaos\quake-leveldesign-starterkit-20241231-windows\working\quake\CarnivalChaos.bsp

INFO: using built-in palette.
WARNING: CarnivalChaos-compile.map[line 6]: Unrecognised string escape - \p
WARNING: CarnivalChaos-compile.map[line 6]: Unrecognised string escape - \p
WARNING: CarnivalChaos-compile.map[line 6]: Unrecognised string escape - \p
WARNING: CarnivalChaos-compile.map[line 6]: Unrecognised string escape - \p
WARNING: CarnivalChaos-compile.map[line 6]: Unrecognised string escape - \p
     50 entities
     18 unique textures
    377 texinfos
    826 unique planes

INFO: world extents calculated to 4360 units
      255 brushes
    1,524 sides
      299 side bevels

            3 texture frames added
WARNING: unable to find texture __TB_empty
Processing hull 0...
    230 SOLID brushes
      1 SKY brushes
    231 brushes total
    1,380 visible sides
INFO: calculating BSP for 231 brushes with 1380 sides
      231 brushes
    1,380 visible faces
    2,438 nodes
    1,860 expensive split nodes
      578 mid-split nodes
    2,439 leaves
    1,174 EMPTY leafs
       18 SKY leafs
    1,247 SOLID leafs
    2,439 leafs total
    34 max tree height
    15 avg tree height
    198 tiny portals
    10,068 tree portals
    335 outside leaves
    0 detail filled leafs
    231 brushes
    840 visible faces
    540 non-visible faces
    1,325 nodes
      321 non-visible nodes
    1,325 expensive split nodes
    1,326 leaves
      561 EMPTY leafs
      749 SOLID leafs
       16 SKY leafs
    1,326 leafs total
    42 max tree height
    19 avg tree height
    151 tiny portals
    5,909 tree portals
    133 outside leaves
    0 detail filled leafs
    151 tiny portals
    5,909 tree portals
    1,915 sides visible
    1,915 makefaces
      653 merged
      487 subdivided
    437 nodes pruned
    66 tiny portals
      444 player-occupiable leaves
      444 clusters of leaves
    1,353 vis portals
    445 SOLID leafs
     16 SKY leafs
    428 EMPTY leafs
    889 leafs total
    41 max tree height
    19 avg tree height
        5 edges degenerated
    1,649 edges added by tjunctions
    1,701 faces optimized through MWT
    5,086 triangles computed from MWT
      413 faces created via optimization of MWT triangles
    4,813 edges
    2,162 faces
Processing hull 1...
Processing hull 2...
WARNING: worldspawn at 0 0 0 has long value for key wad (length 750 >= 127)
Writing CarnivalChaos.bsp as Quake BSP bsp29
Wrote CarnivalChaos.bsp

count   lump name    byte size 
     25 models             1600
   1043 planes            20860
   2619 vertexes          31428
   1032 nodes             24768
    301 texinfos          12040
   2306 faces             46120
   2170 clipnodes         17360
    613 leafs             17164
   2875 marksurfaces       5750
   5102 edges             20408
  10037 surfedges         40148
     21 textures         237528
        lightdata             0
        visdata               0
        entdata            5139

1.049s seconds elapsed


