---- qbsp / ericw-tools 2.0.0-alpha8-64-gbbe39c7c ----

--- Options Summary ---
    "nocolor" was set to "1" (from command line)

Input file: C:\Users\mpatn\Documents\GitHub\Quake-CarnivalChaos\quake-leveldesign-starterkit-20241231-windows\working\quake\CarnivalChaos-compile.map
Output file: C:\Users\mpatn\Documents\GitHub\Quake-CarnivalChaos\quake-leveldesign-starterkit-20241231-windows\working\quake\CarnivalChaos.bsp

INFO: using built-in palette.
WARNING: CarnivalChaos-compile.map[line 6]: Unrecognised string escape - \a
WARNING: CarnivalChaos-compile.map[line 6]: Unrecognised string escape - \a
WARNING: CarnivalChaos-compile.map[line 6]: Unrecognised string escape - \p
WARNING: CarnivalChaos-compile.map[line 6]: Unrecognised string escape - \p
WARNING: CarnivalChaos-compile.map[line 6]: Unrecognised string escape - \p
WARNING: CarnivalChaos-compile.map[line 6]: Unrecognised string escape - \q
      148 entities
       47 unique textures
      945 texinfos
    1,382 unique planes

INFO: world extents calculated to 4360 units
      421 brushes
    2,541 sides
      585 side bevels

            2 texture frames added
WARNING: unable to find texture __TB_empty
Processing hull 0...
    352 SOLID brushes
      1 MIST | DETAIL brushes
      5 SKY brushes
    358 brushes total
    2,161 visible sides
INFO: calculating BSP for 358 brushes with 2161 sides
      358 brushes
    2,161 visible faces
    4,291 nodes
    3,556 expensive split nodes
      735 mid-split nodes
    4,292 leaves
    2,091 EMPTY leafs
        4 MIST | DETAIL leafs
      282 SKY leafs
    1,915 SOLID leafs
    4,292 leafs total
    28 max tree height
    15 avg tree height
    283 tiny portals
    17,504 tree portals
    434 outside leaves
    0 detail filled leafs
      358 brushes
    1,316 visible faces
      845 non-visible faces
    1,869 nodes
      456 non-visible nodes
    1,869 expensive split nodes
    1,870 leaves
      795 EMPTY leafs
        2 MIST | DETAIL leafs
       96 SKY leafs
      977 SOLID leafs
    1,870 leafs total
    39 max tree height
    18 avg tree height
    244 tiny portals
    8,724 tree portals
    146 outside leaves
    0 detail filled leafs
    244 tiny portals
    8,724 tree portals
    2,998 sides visible
    2,995 makefaces
    1,113 merged
      428 subdivided
    474 nodes pruned
    110 tiny portals
      747 player-occupiable leaves
      741 clusters of leaves
    2,341 vis portals
      649 SOLID leafs
        2 MIST | DETAIL leafs
       96 SKY leafs
      649 EMPTY leafs
    1,396 leafs total
    37 max tree height
    17 avg tree height
        4 edges degenerated
    2,296 edges added by tjunctions
    2,227 faces optimized through MWT
    6,773 triangles computed from MWT
      595 faces created via optimization of MWT triangles
    6,473 edges
    2,905 faces
Processing hull 1...
Processing hull 2...
WARNING: worldspawn at 0 0 0 has long value for key wad (length 1483 >= 127)
Writing CarnivalChaos.bsp as Quake BSP bsp29
Wrote CarnivalChaos.bsp

count   lump name    byte size 
     45 models             2880
   1761 planes            35220
   3656 vertexes          43872
   1694 nodes             40656
    725 texinfos          29000
   3232 faces             64640
   4201 clipnodes         33608
   1091 leafs             30548
   4099 marksurfaces       8198
   7137 edges             28548
  13995 surfedges         55980
     49 textures         508040
        lightdata             0
        visdata               0
        entdata           12637

1.538s seconds elapsed


